[General]
debug-on-errors = true
print-undisposed = true 
sim-time-limit = 10s

#repeat = 10
#seed-set = ${runnumber}

#[Config Topo]
network = Topo

*.DC.numStartMeters = 1
